Circuit: * C:\Users\em3743\Documents\LTspiceXVII\lib\sym\ESM\Ideal Components\Draft1.asc

WARNING: Less than two connections to node N002.  This node is used by B:U1:1.
WARNING: Less than two connections to node N003.  This node is used by V:U1:1.
Direct Newton iteration for .op point succeeded.

Date: Tue Aug 02 09:25:42 2022
Total elapsed time: 0.049 seconds.

tnom = 27
temp = 27
method = modified trap
totiter = 2085
traniter = 2082
tranpoints = 1042
accept = 1042
rejected = 0
matrix size = 6
fillins = 0
solver = Normal
Matrix Compiler1: 110 bytes object code size  0.1/0.1/[0.0]
Matrix Compiler2: off  [0.1]/0.1/0.1

