Circuit: * C:\Users\em3743\Documents\LTspiceXVII\lib\sym\ESM\Misc\rtd_PT1206M1B1K00P100.asc

Direct Newton iteration for .op point succeeded.

Date: Fri Jun 10 08:39:06 2022
Total elapsed time: 0.043 seconds.

tnom = 27
temp = 125
method = modified trap
totiter = 2093
traniter = 2090
tranpoints = 1046
accept = 1046
rejected = 0
matrix size = 1
fillins = 0
solver = Normal
Matrix Compiler1: off  0.0/0.0/[0.0]
Matrix Compiler2: off  [0.0]/0.0/0.0

