Circuit: * C:\Users\em3743\Documents\LTspiceXVII\lib\sym\ESM\Diode\Draft1.asc

Direct Newton iteration for .op point succeeded.

Date: Tue Aug 02 09:44:17 2022
Total elapsed time: 0.099 seconds.

tnom = 27
temp = 27
method = modified trap
totiter = 10833
traniter = 10823
tranpoints = 5412
accept = 4458
rejected = 954
matrix size = 2
fillins = 0
solver = Normal
Matrix Compiler1: off  [0.0]/0.0/0.0
Matrix Compiler2: off  [0.0]/0.0/0.0

