Circuit: * C:\Users\em3743\Documents\LTspiceXVII\lib\sym\ESM\__Symbol Templates\Draft1.asc

Direct Newton iteration for .op point succeeded.
.step run=0 temp=-55°C
.step run=1 temp=-55°C
.step run=2 temp=-55°C
.step run=3 temp=-55°C
.step run=4 temp=-55°C
.step run=5 temp=-55°C
.step run=6 temp=-55°C
.step run=7 temp=-55°C
.step run=8 temp=-55°C
.step run=9 temp=-55°C
.step run=10 temp=-55°C
.step run=0 temp=25°C
.step run=1 temp=25°C
.step run=2 temp=25°C
.step run=3 temp=25°C
.step run=4 temp=25°C
.step run=5 temp=25°C
.step run=6 temp=25°C
.step run=7 temp=25°C
.step run=8 temp=25°C
.step run=9 temp=25°C
.step run=10 temp=25°C
.step run=0 temp=125°C
.step run=1 temp=125°C
.step run=2 temp=125°C
.step run=3 temp=125°C
.step run=4 temp=125°C
.step run=5 temp=125°C
.step run=6 temp=125°C
.step run=7 temp=125°C
.step run=8 temp=125°C
.step run=9 temp=125°C
.step run=10 temp=125°C

Date: Tue Aug 02 10:01:34 2022
Total elapsed time: 0.692 seconds.

tnom = 27
temp = 125
method = modified trap
totiter = 2085
traniter = 2082
tranpoints = 1042
accept = 1042
rejected = 0
matrix size = 4
fillins = 0
solver = Normal
Matrix Compiler1: 82 bytes object code size  0.1/0.1/[0.1]
Matrix Compiler2: off  [0.1]/0.1/0.1

