Circuit: * C:\Users\em3743\Documents\LTspiceXVII\lib\sym\MLCC\Draft1.asc

Direct Newton iteration for .op point succeeded.
Ignoring empty pin current: Ix(u1:11)
Ignoring empty pin current: Ix(u1:12)
Ignoring empty pin current: Ix(u1:11)
Ignoring empty pin current: Ix(u1:12)

Date: Thu Jun 09 15:24:11 2022
Total elapsed time: 0.044 seconds.

tnom = 27
temp = 27
method = modified trap
totiter = 2093
traniter = 2088
tranpoints = 1045
accept = 1045
rejected = 0
matrix size = 6
fillins = 0
solver = Normal
Matrix Compiler1: 164 bytes object code size  0.1/0.1/[0.0]
Matrix Compiler2: 328 bytes object code size  0.1/0.1/[0.1]

